[VMEM] WARNING: physical memory size is smaller than virtual memory size.

*** ChampSim Multicore Out-of-Order Simulator ***
Warmup Instructions: 200000000
Simulation Instructions: 500000000
Number of CPUs: 1
Page size: 4096

Initialize SIGNATURE TABLE
ST_SET: 1
ST_WAY: 256
ST_TAG_BIT: 16

Initialize PATTERN TABLE
PT_SET: 512
PT_WAY: 4
SIG_DELTA_BIT: 7
C_SIG_BIT: 4
C_DELTA_BIT: 4

Initialize PREFETCH FILTER
FILTER_SET: 1024
Off-chip DRAM Size: 16 GiB Channels: 1 Width: 64-bit Data Rate: 3205 MT/s
Heartbeat CPU 0 instructions: 10000000 cycles: 4651107 heartbeat IPC: 2.15 cumulative IPC: 2.15 (Simulation time: 00 hr 00 min 51 sec)
Heartbeat CPU 0 instructions: 20000001 cycles: 9190014 heartbeat IPC: 2.203 cumulative IPC: 2.176 (Simulation time: 00 hr 01 min 42 sec)
Heartbeat CPU 0 instructions: 30000005 cycles: 12485862 heartbeat IPC: 3.034 cumulative IPC: 2.403 (Simulation time: 00 hr 02 min 22 sec)
Heartbeat CPU 0 instructions: 40000009 cycles: 16209366 heartbeat IPC: 2.686 cumulative IPC: 2.468 (Simulation time: 00 hr 03 min 05 sec)
Heartbeat CPU 0 instructions: 50000009 cycles: 19718096 heartbeat IPC: 2.85 cumulative IPC: 2.536 (Simulation time: 00 hr 03 min 49 sec)
Heartbeat CPU 0 instructions: 60000009 cycles: 22907116 heartbeat IPC: 3.136 cumulative IPC: 2.619 (Simulation time: 00 hr 04 min 32 sec)
Heartbeat CPU 0 instructions: 70000009 cycles: 26385033 heartbeat IPC: 2.875 cumulative IPC: 2.653 (Simulation time: 00 hr 05 min 15 sec)
Heartbeat CPU 0 instructions: 80000009 cycles: 29832434 heartbeat IPC: 2.901 cumulative IPC: 2.682 (Simulation time: 00 hr 06 min 00 sec)
Heartbeat CPU 0 instructions: 90000009 cycles: 33188564 heartbeat IPC: 2.98 cumulative IPC: 2.712 (Simulation time: 00 hr 06 min 45 sec)
Heartbeat CPU 0 instructions: 100000012 cycles: 36553098 heartbeat IPC: 2.972 cumulative IPC: 2.736 (Simulation time: 00 hr 07 min 26 sec)
Heartbeat CPU 0 instructions: 110000012 cycles: 39782833 heartbeat IPC: 3.096 cumulative IPC: 2.765 (Simulation time: 00 hr 08 min 07 sec)
Heartbeat CPU 0 instructions: 120000014 cycles: 43198187 heartbeat IPC: 2.928 cumulative IPC: 2.778 (Simulation time: 00 hr 08 min 51 sec)
Heartbeat CPU 0 instructions: 130000016 cycles: 47012853 heartbeat IPC: 2.621 cumulative IPC: 2.765 (Simulation time: 00 hr 09 min 35 sec)
Heartbeat CPU 0 instructions: 140000016 cycles: 50328801 heartbeat IPC: 3.016 cumulative IPC: 2.782 (Simulation time: 00 hr 10 min 18 sec)
Heartbeat CPU 0 instructions: 150000018 cycles: 53818352 heartbeat IPC: 2.866 cumulative IPC: 2.787 (Simulation time: 00 hr 11 min 02 sec)
Heartbeat CPU 0 instructions: 160000019 cycles: 57263055 heartbeat IPC: 2.903 cumulative IPC: 2.794 (Simulation time: 00 hr 11 min 44 sec)
Heartbeat CPU 0 instructions: 170000020 cycles: 61202133 heartbeat IPC: 2.539 cumulative IPC: 2.778 (Simulation time: 00 hr 12 min 35 sec)
Heartbeat CPU 0 instructions: 180000021 cycles: 65739747 heartbeat IPC: 2.204 cumulative IPC: 2.738 (Simulation time: 00 hr 13 min 31 sec)
Heartbeat CPU 0 instructions: 190000023 cycles: 69761860 heartbeat IPC: 2.486 cumulative IPC: 2.724 (Simulation time: 00 hr 14 min 22 sec)
Warmup finished CPU 0 instructions: 200000000 cycles: 73120924 cumulative IPC: 2.735 (Simulation time: 00 hr 15 min 02 sec)
Warmup complete CPU 0 instructions: 200000000 cycles: 73120924 cumulative IPC: 2.735 (Simulation time: 00 hr 15 min 02 sec)
Heartbeat CPU 0 instructions: 200000025 cycles: 73120929 heartbeat IPC: 2.977 cumulative IPC: 5 (Simulation time: 00 hr 15 min 02 sec)
Heartbeat CPU 0 instructions: 210000027 cycles: 79878154 heartbeat IPC: 1.48 cumulative IPC: 1.48 (Simulation time: 00 hr 15 min 59 sec)
Heartbeat CPU 0 instructions: 220000029 cycles: 86453117 heartbeat IPC: 1.521 cumulative IPC: 1.5 (Simulation time: 00 hr 17 min 00 sec)
Heartbeat CPU 0 instructions: 230000029 cycles: 92628969 heartbeat IPC: 1.619 cumulative IPC: 1.538 (Simulation time: 00 hr 17 min 53 sec)
Heartbeat CPU 0 instructions: 240000029 cycles: 99254805 heartbeat IPC: 1.509 cumulative IPC: 1.531 (Simulation time: 00 hr 18 min 52 sec)
Heartbeat CPU 0 instructions: 250000030 cycles: 105725163 heartbeat IPC: 1.546 cumulative IPC: 1.534 (Simulation time: 00 hr 19 min 48 sec)
Heartbeat CPU 0 instructions: 260000032 cycles: 111940538 heartbeat IPC: 1.609 cumulative IPC: 1.546 (Simulation time: 00 hr 20 min 46 sec)
Heartbeat CPU 0 instructions: 270000032 cycles: 118267865 heartbeat IPC: 1.58 cumulative IPC: 1.55 (Simulation time: 00 hr 21 min 41 sec)
Heartbeat CPU 0 instructions: 280000032 cycles: 124572217 heartbeat IPC: 1.586 cumulative IPC: 1.555 (Simulation time: 00 hr 22 min 38 sec)
Heartbeat CPU 0 instructions: 290000036 cycles: 131295111 heartbeat IPC: 1.487 cumulative IPC: 1.547 (Simulation time: 00 hr 23 min 34 sec)
Heartbeat CPU 0 instructions: 300000040 cycles: 137781782 heartbeat IPC: 1.542 cumulative IPC: 1.547 (Simulation time: 00 hr 24 min 35 sec)
Heartbeat CPU 0 instructions: 310000042 cycles: 144353348 heartbeat IPC: 1.522 cumulative IPC: 1.544 (Simulation time: 00 hr 25 min 38 sec)
Heartbeat CPU 0 instructions: 320000042 cycles: 150858198 heartbeat IPC: 1.537 cumulative IPC: 1.544 (Simulation time: 00 hr 26 min 32 sec)
Heartbeat CPU 0 instructions: 330000043 cycles: 157129200 heartbeat IPC: 1.595 cumulative IPC: 1.547 (Simulation time: 00 hr 27 min 33 sec)
Heartbeat CPU 0 instructions: 340000044 cycles: 168507714 heartbeat IPC: 0.8788 cumulative IPC: 1.468 (Simulation time: 00 hr 28 min 51 sec)
Heartbeat CPU 0 instructions: 350000044 cycles: 180693890 heartbeat IPC: 0.8206 cumulative IPC: 1.394 (Simulation time: 00 hr 30 min 14 sec)
Heartbeat CPU 0 instructions: 360000044 cycles: 192822474 heartbeat IPC: 0.8245 cumulative IPC: 1.337 (Simulation time: 00 hr 31 min 37 sec)
Heartbeat CPU 0 instructions: 370000044 cycles: 199266942 heartbeat IPC: 1.552 cumulative IPC: 1.348 (Simulation time: 00 hr 32 min 35 sec)
Heartbeat CPU 0 instructions: 380000045 cycles: 205979355 heartbeat IPC: 1.49 cumulative IPC: 1.355 (Simulation time: 00 hr 33 min 37 sec)
Heartbeat CPU 0 instructions: 390000047 cycles: 212837032 heartbeat IPC: 1.458 cumulative IPC: 1.36 (Simulation time: 00 hr 34 min 33 sec)
Heartbeat CPU 0 instructions: 400000050 cycles: 219566987 heartbeat IPC: 1.486 cumulative IPC: 1.366 (Simulation time: 00 hr 35 min 38 sec)
Heartbeat CPU 0 instructions: 410000054 cycles: 225969994 heartbeat IPC: 1.562 cumulative IPC: 1.374 (Simulation time: 00 hr 36 min 31 sec)
Heartbeat CPU 0 instructions: 420000058 cycles: 232534412 heartbeat IPC: 1.523 cumulative IPC: 1.38 (Simulation time: 00 hr 37 min 33 sec)
Heartbeat CPU 0 instructions: 430000061 cycles: 239373973 heartbeat IPC: 1.462 cumulative IPC: 1.383 (Simulation time: 00 hr 38 min 38 sec)
Heartbeat CPU 0 instructions: 440000061 cycles: 246171997 heartbeat IPC: 1.471 cumulative IPC: 1.387 (Simulation time: 00 hr 39 min 37 sec)
Heartbeat CPU 0 instructions: 450000064 cycles: 252550526 heartbeat IPC: 1.568 cumulative IPC: 1.393 (Simulation time: 00 hr 40 min 41 sec)
Heartbeat CPU 0 instructions: 460000064 cycles: 258970683 heartbeat IPC: 1.558 cumulative IPC: 1.399 (Simulation time: 00 hr 41 min 55 sec)
Heartbeat CPU 0 instructions: 470000064 cycles: 265397263 heartbeat IPC: 1.556 cumulative IPC: 1.404 (Simulation time: 00 hr 43 min 00 sec)
Heartbeat CPU 0 instructions: 480000067 cycles: 271966927 heartbeat IPC: 1.522 cumulative IPC: 1.408 (Simulation time: 00 hr 43 min 53 sec)
Heartbeat CPU 0 instructions: 490000071 cycles: 278400210 heartbeat IPC: 1.554 cumulative IPC: 1.413 (Simulation time: 00 hr 44 min 48 sec)
Heartbeat CPU 0 instructions: 500000071 cycles: 285089103 heartbeat IPC: 1.495 cumulative IPC: 1.415 (Simulation time: 00 hr 45 min 43 sec)
Heartbeat CPU 0 instructions: 510000072 cycles: 292188174 heartbeat IPC: 1.409 cumulative IPC: 1.415 (Simulation time: 00 hr 46 min 44 sec)
Heartbeat CPU 0 instructions: 520000075 cycles: 298702236 heartbeat IPC: 1.535 cumulative IPC: 1.419 (Simulation time: 00 hr 47 min 42 sec)
Heartbeat CPU 0 instructions: 530000076 cycles: 305535416 heartbeat IPC: 1.463 cumulative IPC: 1.42 (Simulation time: 00 hr 48 min 40 sec)
Heartbeat CPU 0 instructions: 540000076 cycles: 312088111 heartbeat IPC: 1.526 cumulative IPC: 1.423 (Simulation time: 00 hr 49 min 36 sec)
Heartbeat CPU 0 instructions: 550000077 cycles: 318865593 heartbeat IPC: 1.475 cumulative IPC: 1.424 (Simulation time: 00 hr 50 min 33 sec)
Heartbeat CPU 0 instructions: 560000080 cycles: 325501860 heartbeat IPC: 1.507 cumulative IPC: 1.426 (Simulation time: 00 hr 51 min 30 sec)
Heartbeat CPU 0 instructions: 570000080 cycles: 334410702 heartbeat IPC: 1.122 cumulative IPC: 1.416 (Simulation time: 00 hr 52 min 38 sec)
Heartbeat CPU 0 instructions: 580000081 cycles: 347071866 heartbeat IPC: 0.7898 cumulative IPC: 1.387 (Simulation time: 00 hr 54 min 10 sec)
Heartbeat CPU 0 instructions: 590000083 cycles: 360983215 heartbeat IPC: 0.7188 cumulative IPC: 1.355 (Simulation time: 00 hr 55 min 47 sec)
Heartbeat CPU 0 instructions: 600000087 cycles: 367372336 heartbeat IPC: 1.565 cumulative IPC: 1.359 (Simulation time: 00 hr 56 min 40 sec)
Heartbeat CPU 0 instructions: 610000089 cycles: 373591809 heartbeat IPC: 1.608 cumulative IPC: 1.365 (Simulation time: 00 hr 57 min 35 sec)
Heartbeat CPU 0 instructions: 620000089 cycles: 380169948 heartbeat IPC: 1.52 cumulative IPC: 1.368 (Simulation time: 00 hr 58 min 38 sec)
Heartbeat CPU 0 instructions: 630000092 cycles: 386814335 heartbeat IPC: 1.505 cumulative IPC: 1.371 (Simulation time: 00 hr 59 min 32 sec)
Heartbeat CPU 0 instructions: 640000096 cycles: 393767630 heartbeat IPC: 1.438 cumulative IPC: 1.372 (Simulation time: 01 hr 00 min 37 sec)
Heartbeat CPU 0 instructions: 650000097 cycles: 400119575 heartbeat IPC: 1.574 cumulative IPC: 1.376 (Simulation time: 01 hr 01 min 30 sec)
Heartbeat CPU 0 instructions: 660000099 cycles: 406301096 heartbeat IPC: 1.618 cumulative IPC: 1.381 (Simulation time: 01 hr 02 min 26 sec)
Heartbeat CPU 0 instructions: 670000101 cycles: 412430317 heartbeat IPC: 1.632 cumulative IPC: 1.385 (Simulation time: 01 hr 03 min 17 sec)
Heartbeat CPU 0 instructions: 680000103 cycles: 418995884 heartbeat IPC: 1.523 cumulative IPC: 1.388 (Simulation time: 01 hr 04 min 19 sec)
Heartbeat CPU 0 instructions: 690000106 cycles: 425561876 heartbeat IPC: 1.523 cumulative IPC: 1.39 (Simulation time: 01 hr 05 min 14 sec)
Simulation finished CPU 0 instructions: 500000001 cycles: 359032407 cumulative IPC: 1.393 (Simulation time: 01 hr 06 min 16 sec)
Simulation complete CPU 0 instructions: 500000001 cycles: 359032407 cumulative IPC: 1.393 (Simulation time: 01 hr 06 min 16 sec)

ChampSim completed all CPUs

=== Simulation ===
CPU 0 runs traces/DPC-3/400.perlbench-41B.champsimtrace.xz

Region of Interest Statistics

CPU 0 cumulative IPC: 1.393 instructions: 500000001 cycles: 359032407
CPU 0 Branch Prediction Accuracy: 98.92% MPKI: 2.247 Average ROB Occupancy at Mispredict: 173.2
Branch type MPKI
BRANCH_DIRECT_JUMP: 0.01064
BRANCH_INDIRECT: 0.335
BRANCH_CONDITIONAL: 1.724
BRANCH_DIRECT_CALL: 0.005272
BRANCH_INDIRECT_CALL: 0.1651
BRANCH_RETURN: 0.006996

cpu0->cpu0_STLB TOTAL        ACCESS:     353289 HIT:     345704 MISS:       7585 MSHR_MERGE:          0
cpu0->cpu0_STLB LOAD         ACCESS:     353289 HIT:     345704 MISS:       7585 MSHR_MERGE:          0
cpu0->cpu0_STLB RFO          ACCESS:          0 HIT:          0 MISS:          0 MSHR_MERGE:          0
cpu0->cpu0_STLB PREFETCH     ACCESS:          0 HIT:          0 MISS:          0 MSHR_MERGE:          0
cpu0->cpu0_STLB WRITE        ACCESS:          0 HIT:          0 MISS:          0 MSHR_MERGE:          0
cpu0->cpu0_STLB TRANSLATION  ACCESS:          0 HIT:          0 MISS:          0 MSHR_MERGE:          0
cpu0->cpu0_STLB PREFETCH REQUESTED:          0 ISSUED:          0 USEFUL:          0 USELESS:          0
cpu0->cpu0_STLB AVERAGE MISS LATENCY: 387.9 cycles
cpu0->cpu0_L2C TOTAL        ACCESS:    1242688 HIT:     792005 MISS:     450683 MSHR_MERGE:       8357
cpu0->cpu0_L2C LOAD         ACCESS:     656158 HIT:     440709 MISS:     215449 MSHR_MERGE:        507
cpu0->cpu0_L2C RFO          ACCESS:      29569 HIT:      11262 MISS:      18307 MSHR_MERGE:          0
cpu0->cpu0_L2C PREFETCH     ACCESS:     467041 HIT:     265591 MISS:     201450 MSHR_MERGE:       7850
cpu0->cpu0_L2C WRITE        ACCESS:      75728 HIT:      74251 MISS:       1477 MSHR_MERGE:          0
cpu0->cpu0_L2C TRANSLATION  ACCESS:      14192 HIT:        192 MISS:      14000 MSHR_MERGE:          0
cpu0->cpu0_L2C PREFETCH REQUESTED:     467041 ISSUED:     467041 USEFUL:       2099 USELESS:        305
cpu0->cpu0_L2C AVERAGE MISS LATENCY: 123.7 cycles
cpu0->cpu0_L1I TOTAL        ACCESS:   45391349 HIT:   44959414 MISS:     431935 MSHR_MERGE:      56667
cpu0->cpu0_L1I LOAD         ACCESS:   45391349 HIT:   44959414 MISS:     431935 MSHR_MERGE:      56667
cpu0->cpu0_L1I RFO          ACCESS:          0 HIT:          0 MISS:          0 MSHR_MERGE:          0
cpu0->cpu0_L1I PREFETCH     ACCESS:          0 HIT:          0 MISS:          0 MSHR_MERGE:          0
cpu0->cpu0_L1I WRITE        ACCESS:          0 HIT:          0 MISS:          0 MSHR_MERGE:          0
cpu0->cpu0_L1I TRANSLATION  ACCESS:          0 HIT:          0 MISS:          0 MSHR_MERGE:          0
cpu0->cpu0_L1I PREFETCH REQUESTED:          0 ISSUED:          0 USEFUL:          0 USELESS:          0
cpu0->cpu0_L1I AVERAGE MISS LATENCY: 10.04 cycles
cpu0->cpu0_L1D TOTAL        ACCESS:  128852019 HIT:  128376116 MISS:     475903 MSHR_MERGE:     151252
cpu0->cpu0_L1D LOAD         ACCESS:   61154277 HIT:   60828126 MISS:     326151 MSHR_MERGE:      45261
cpu0->cpu0_L1D RFO          ACCESS:          0 HIT:          0 MISS:          0 MSHR_MERGE:          0
cpu0->cpu0_L1D PREFETCH     ACCESS:          0 HIT:          0 MISS:          0 MSHR_MERGE:          0
cpu0->cpu0_L1D WRITE        ACCESS:   67682060 HIT:   67546516 MISS:     135544 MSHR_MERGE:     105975
cpu0->cpu0_L1D TRANSLATION  ACCESS:      15682 HIT:       1474 MISS:      14208 MSHR_MERGE:         16
cpu0->cpu0_L1D PREFETCH REQUESTED:          0 ISSUED:          0 USEFUL:          0 USELESS:          0
cpu0->cpu0_L1D AVERAGE MISS LATENCY: 98 cycles
cpu0->cpu0_ITLB TOTAL        ACCESS:   39409112 HIT:   39381840 MISS:      27272 MSHR_MERGE:      14731
cpu0->cpu0_ITLB LOAD         ACCESS:   39409112 HIT:   39381840 MISS:      27272 MSHR_MERGE:      14731
cpu0->cpu0_ITLB RFO          ACCESS:          0 HIT:          0 MISS:          0 MSHR_MERGE:          0
cpu0->cpu0_ITLB PREFETCH     ACCESS:          0 HIT:          0 MISS:          0 MSHR_MERGE:          0
cpu0->cpu0_ITLB WRITE        ACCESS:          0 HIT:          0 MISS:          0 MSHR_MERGE:          0
cpu0->cpu0_ITLB TRANSLATION  ACCESS:          0 HIT:          0 MISS:          0 MSHR_MERGE:          0
cpu0->cpu0_ITLB PREFETCH REQUESTED:          0 ISSUED:          0 USEFUL:          0 USELESS:          0
cpu0->cpu0_ITLB AVERAGE MISS LATENCY: 9.766 cycles
cpu0->cpu0_DTLB TOTAL        ACCESS:  120790659 HIT:  120373130 MISS:     417529 MSHR_MERGE:      76781
cpu0->cpu0_DTLB LOAD         ACCESS:  120790659 HIT:  120373130 MISS:     417529 MSHR_MERGE:      76781
cpu0->cpu0_DTLB RFO          ACCESS:          0 HIT:          0 MISS:          0 MSHR_MERGE:          0
cpu0->cpu0_DTLB PREFETCH     ACCESS:          0 HIT:          0 MISS:          0 MSHR_MERGE:          0
cpu0->cpu0_DTLB WRITE        ACCESS:          0 HIT:          0 MISS:          0 MSHR_MERGE:          0
cpu0->cpu0_DTLB TRANSLATION  ACCESS:          0 HIT:          0 MISS:          0 MSHR_MERGE:          0
cpu0->cpu0_DTLB PREFETCH REQUESTED:          0 ISSUED:          0 USEFUL:          0 USELESS:          0
cpu0->cpu0_DTLB AVERAGE MISS LATENCY: 12.44 cycles
cpu0->LLC TOTAL        ACCESS:     487855 HIT:     221919 MISS:     265936 MSHR_MERGE:      11498
cpu0->LLC LOAD         ACCESS:     214942 HIT:      84053 MISS:     130889 MSHR_MERGE:       9925
cpu0->LLC RFO          ACCESS:      18307 HIT:       6137 MISS:      12170 MSHR_MERGE:         58
cpu0->LLC PREFETCH     ACCESS:     193600 HIT:      85554 MISS:     108046 MSHR_MERGE:       1515
cpu0->LLC WRITE        ACCESS:      47006 HIT:      45761 MISS:       1245 MSHR_MERGE:          0
cpu0->LLC TRANSLATION  ACCESS:      14000 HIT:        414 MISS:      13586 MSHR_MERGE:          0
cpu0->LLC PREFETCH REQUESTED:          0 ISSUED:          0 USEFUL:          0 USELESS:          0
cpu0->LLC AVERAGE MISS LATENCY: 175.1 cycles

DRAM Statistics

Channel 0 RQ ROW_BUFFER_HIT:       3905
  ROW_BUFFER_MISS:     249285
  AVG DBUS CONGESTED CYCLE: 17.79
Channel 0 WQ ROW_BUFFER_HIT:      10705
  ROW_BUFFER_MISS:      23895
  FULL:          0
Channel 0 REFRESHES ISSUED:      29919
[SPP] total prefetches: 881891
[SPP] page-crossing count: 21795
[SPP] page-crossing distances:
  distance -1: 8065
  distance 1: 13730
